/*--------------------------------*- C++ -*----------------------------------*\
| =========                 |                                                 |
| \\      /  F ield         | OpenFOAM: The Open Source CFD Toolbox           |
|  \\    /   O peration     | Version:  7                                     |
|   \\  /    A nd           | Web:      www.OpenFOAM.com                      |
|    \\/     M anipulation  |                                                 |
\*---------------------------------------------------------------------------*/
FoamFile
{
    version     2.0;
    format      ascii;
    class       dictionary;
    object      blockMeshDict;
}
// * * * * * * * * * * * * * * * * * * * * * * * * * * * * * * * * * * * * * //

scale   100;

deltaX  50;
deltaY  25;

zmin    -0.005;
zmax    0.005;

vertices
(
    (-0.5 -0.5 $zmin)
    ( 1.5 -0.5 $zmin)
    ( 1.5  0.5 $zmin)
    (-0.5  0.5 $zmin)
    (-0.5 -0.5 $zmax)
    ( 1.5 -0.5 $zmax)
    ( 1.5  0.5 $zmax)
    (-0.5  0.5 $zmax)
);

blocks
(
    hex (0 1 2 3 4 5 6 7) ($deltaX $deltaY 1) simpleGrading (1 1 1)
);

edges
(
);

boundary
(
    overset
    {
        type overset;
        faces
        (
            (3 7 6 2)
            (1 5 4 0)
            (0 4 7 3)
            (2 6 5 1)
        );
    }

    symFront
    {
        type symmetryPlane;
        faces
        (
            (4 5 6 7)
        );
    }

    symBack
    {
        type symmetryPlane;
        faces
        (
            (0 3 2 1)
        );
    }
);

mergePatchPairs
(
);

// ************************************************************************* //
