/*--------------------------------*- C++ -*----------------------------------*\
| =========                 |                                                 |
| \\      /  F ield         | OpenFOAM: The Open Source CFD Toolbox           |
|  \\    /   O peration     | Version:  5.x                                   |
|   \\  /    A nd           | Web:      www.OpenFOAM.org                      |
|    \\/     M anipulation  |                                                 |
\*---------------------------------------------------------------------------*/
/*   Windows 32 and 64 bit porting by blueCAPE: http://www.bluecape.com.pt   *\
|  Based on Windows porting (2.0.x v4) by Symscape: http://www.symscape.com   |
\*---------------------------------------------------------------------------*/
FoamFile
{
    version     2.0;
    format      ascii;
    class       dictionary;
    location    "constant/polyMesh";
    object      meshMetaDict;
}
// * * * * * * * * * * * * * * * * * * * * * * * * * * * * * * * * * * * * * //

surfaceFile     "./constant/geometry/combined.fms";

surfaceMeta
{
    nPoints         12562;
    nFacets         23560;
    nPatches        5;
    nFeatureEdges   1552;
    patches
    {
        inlet
        {
            type            patch;
            nFacets         2;
        }
        outlet
        {
            type            patch;
            nFacets         2;
        }
        topAndBottom
        {
            type            wall;
            nFacets         4;
        }
        ribletTop
        {
            type            wall;
            nFacets         11776;
        }
        ribletBottom
        {
            type            wall;
            nFacets         11776;
        }
    }
    pointSubsets
    {
    }
    facetSubsets
    {
    }
    featureEdgeSubsets
    {
    }
}
